Version 4
SHEET 1 1108 680
WIRE 32 -224 -224 -224
WIRE 192 -224 32 -224
WIRE -224 -176 -224 -224
WIRE 32 -128 32 -224
WIRE 80 -128 32 -128
WIRE 192 -128 192 -224
WIRE -224 -64 -224 -96
WIRE -224 -64 -336 -64
WIRE -128 -64 -224 -64
WIRE -224 -48 -224 -64
WIRE 32 -48 32 -128
WIRE -224 0 -288 0
WIRE 80 0 32 0
WIRE 192 0 192 -48
WIRE -128 32 -128 -64
WIRE -128 32 -176 32
WIRE -16 32 -128 32
WIRE -224 128 -224 48
WIRE -128 128 -224 128
WIRE -224 160 -224 128
WIRE 32 160 32 48
WIRE -288 208 -288 0
WIRE -224 208 -288 208
WIRE 80 208 80 0
WIRE 80 208 32 208
WIRE -128 240 -128 128
WIRE -128 240 -176 240
WIRE -16 240 -128 240
WIRE -288 288 -288 208
WIRE -224 288 -224 256
WIRE -224 288 -288 288
WIRE 32 288 32 256
WIRE 80 288 80 208
WIRE 80 288 32 288
WIRE -224 320 -224 288
WIRE -96 320 -224 320
WIRE 32 320 32 288
WIRE 32 320 -96 320
WIRE -96 368 -96 320
FLAG 192 0 0
FLAG -96 368 0
FLAG 80 -128 Iout
FLAG -336 -64 Iref
DATAFLAG -224 -64 "Id(Mo)"
SYMBOL nmos4 -16 160 R0
WINDOW 0 61 27 Left 2
SYMATTR InstName M2
SYMATTR Value NMOS2
SYMBOL nmos4 -16 -48 R0
SYMATTR InstName M3
SYMATTR Value NMOS3
SYMBOL nmos4 -176 -48 M0
SYMATTR InstName MO
SYMATTR Value NMOS0
SYMBOL nmos4 -176 160 M0
SYMATTR InstName M1
SYMATTR Value NMOS1
SYMBOL res -240 -192 R0
SYMATTR InstName RD
SYMATTR Value 470k
SYMBOL voltage 192 -144 R0
WINDOW 123 0 0 Left 0
WINDOW 39 0 0 Left 0
SYMATTR InstName V2
SYMATTR Value 5
TEXT 120 392 Left 2 !.model nmos0 nmos(vto=0.7v, kp=10u, lambda=0.04 gamma=0.4 W=10um L=5um)\n.model nmos1 nmos(vto=0.7v, kp=10u, lambda=0.04 gamma=0 W=10um L=5um)\n.model nmos2 nmos(vto=0.7v, kp=10u, lambda=0.04 gamma=0 W=20um L=5um)\n.model nmos3 nmos(vto=0.7v, kp=10u, lambda=0.04 gamma=0.4 W=20um L=5um)
TEXT -344 496 Left 2 !.tran 0 5ms 0 0.1ms
TEXT 408 0 Left 2 !.meas Iref FIND Id(M0) WHEN time =2ms\n.meas Iout FIND Id(M3) WHEN time =2ms\n.meas ratio param Iout/Iref
